.include "nominal.jsim"

.subckt xor a b z
.ends


